src/case30_solved.m
function mpc = case30_solved
%CASE30_SOLVED

%% MATPOWER Case Format : Version 2
mpc.version = '2';

%%-----  Power Flow Data  -----%%
%% system MVA base
mpc.baseMVA = 100;

%% bus data
%	bus_i	type	Pd	Qd	Gs	Bs	area	Vm	Va	baseKV	zone	Vmax	Vmin	lam_P	lam_Q	mu_Vmax	mu_Vmin
mpc.bus = [
	1	3	0	0	0	0	1	0.982370581	2.86478832e-09	135	1	1.05	0.95	3.6617	-0.0000	0.0000	0.0000;
	2	2	21.7	12.7	0	0	1	0.978715807	-0.76302445	135	1	1.1	0.95	3.6891	-0.0000	0.0000	0.0000;
	3	1	2.4	1.2	0	0	1	0.976915438	-2.3897139	135	1	1.05	0.95	3.7542	-0.0164	0.0000	0.0000;
	4	1	7.6	1.6	0	0	1	0.976432315	-2.83860257	135	1	1.05	0.95	3.7709	-0.0208	0.0000	0.0000;
	5	1	0	0	0	0.19	1	0.971264184	-2.48638265	135	1	1.05	0.95	3.7444	-0.0006	0.0000	0.0000;
	6	1	0	0	0	0	1	0.972326442	-3.22870848	135	1	1.05	0.95	3.7791	-0.0198	0.0000	0.0000;
	7	1	22.8	10.9	0	0	1	0.962301884	-3.49102017	135	1	1.05	0.95	3.8008	0.0032	0.0000	0.0000;
	8	1	30	30	0	0	1	0.96111682	-3.68193226	135	1	1.05	0.95	5.3822	1.4040	0.0000	0.0000;
	9	1	0	0	0	0	1	0.990318445	-4.1372157	135	1	1.05	0.95	3.8232	0.0198	0.0000	0.0000;
	10	1	5.8	2	0	0	3	0.999839466	-4.59999094	135	1	1.05	0.95	3.8462	0.0394	0.0000	0.0000;
	11	1	0	0	0	0	1	0.990318445	-4.1372157	135	1	1.05	0.95	3.8232	0.0198	0.0000	0.0000;
	12	1	11.2	7.5	0	0	2	1.01742746	-4.4978665	135	1	1.05	0.95	3.8100	0.0000	0.0000	0.0000;
	13	2	0	0	0	0	2	1.06445009	-3.29789247	135	1	1.1	0.95	3.8100	0.0000	0.0000	0.0000;
	14	1	6.2	1.6	0	0	2	1.00663583	-5.03965184	135	1	1.05	0.95	3.8677	0.0181	0.0000	0.0000;
	15	1	8.2	2.5	0	0	2	1.00920311	-4.81402732	135	1	1.05	0.95	3.8561	0.0179	0.0000	0.0000;
	16	1	3.5	1.8	0	0	2	1.00283689	-4.83930131	135	1	1.05	0.95	3.8488	0.0309	0.0000	0.0000;
	17	1	9	5.8	0	0	2	0.995484387	-4.88738522	135	1	1.05	0.95	3.8625	0.0473	0.0000	0.0000;
	18	1	3.2	0.9	0	0	2	0.993252892	-5.48438292	135	1	1.05	0.95	3.9111	0.0469	0.0000	0.0000;
	19	1	9.5	3.4	0	0	2	0.987344874	-5.6882938	135	1	1.05	0.95	3.9262	0.0580	0.0000	0.0000;
	20	1	2.2	0.7	0	0	2	0.9895627	-5.4719632	135	1	1.05	0.95	3.9100	0.0549	0.0000	0.0000;
	21	1	17.5	11.2	0	0	3	1.00926699	-4.62101623	135	1	1.05	0.95	3.8539	0.0165	0.0000	0.0000;
	22	2	0	0	0	0	3	1.01597944	-4.50326065	135	1	1.1	0.95	3.8426	0.0000	0.0000	0.0000;
	23	2	3.2	1.6	0	0	2	1.0255808	-3.75575521	135	1	1.1	0.95	3.8133	-0.0000	0.0000	0.0000;
	24	1	8.7	6.7	0	0.04	3	1.01671732	-3.88535598	135	1	1.05	0.95	3.8844	0.0276	0.0000	0.0000;
	25	1	0	0	0	0	3	1.04379975	-2.07254683	135	1	1.05	0.95	3.9319	0.0224	0.0000	0.0000;
	26	1	3.5	2.3	0	0	3	1.02673933	-2.47618831	135	1	1.05	0.95	3.9985	0.0669	0.0000	0.0000;
	27	2	0	0	0	0	3	1.0689518	-0.714868826	135	1	1.1	0.95	3.9157	0.0000	0.0000	0.0000;
	28	1	0	0	0	0	1	0.982019421	-3.21531448	135	1	1.05	0.95	4.1057	0.2500	0.0000	0.0000;
	29	1	2.4	0.9	0	0	3	1.05	-1.84955587	135	1	1.05	0.95	3.9664	-0.0588	29.8070	0.0000;
	30	1	10.6	1.9	0	0	3	1.03911351	-2.64305032	135	1	1.05	0.95	4.0508	-0.0116	0.0000	0.0000;
];

%% generator data
%	bus	Pg	Qg	Qmax	Qmin	Vg	mBase	status	Pmax	Pmin	Pc1	Pc2	Qc1min	Qc1max	Qc2min	Qc2max	ramp_agc	ramp_10	ramp_30	ramp_q	apf	mu_Pmax	mu_Pmin	mu_Qmax	mu_Qmin
mpc.gen = [
	1	41.5424165	-5.43578882	150	-20	0.982370581	100	1	80	0	0	0	0	0	0	0	0	0	0	0	0	0.0000	0.0000	0.0000	0.0000;
	2	55.4022597	1.67586067	60	-20	0.978715807	100	1	80	0	0	0	0	0	0	0	0	0	0	0	0	0.0000	0.0000	0.0000	0.0000;
	22	22.7405045	34.2033739	62.5	-15	1.01597944	100	1	50	0	0	0	0	0	0	0	0	0	0	0	0	0.0000	0.0000	0.0000	0.0000;
	27	39.9086128	31.7553718	48.7	-15	1.0689518	100	1	55	0	0	0	0	0	0	0	0	0	0	0	0	0.0000	0.0000	0.0000	0.0000;
	23	16.2665624	6.9585587	40	-10	1.0255808	100	1	30	0	0	0	0	0	0	0	0	0	0	0	0	0.0000	0.0000	0.0000	0.0000;
	13	16.2001185	35.9219686	44.7	-15	1.06445009	100	1	40	0	0	0	0	0	0	0	0	0	0	0	0	0.0000	0.0000	0.0000	0.0000;
];

%% branch data
%	fbus	tbus	r	x	b	rateA	rateB	rateC	ratio	angle	status	angmin	angmax	Pf	Qf	Pt	Qt	mu_Sf	mu_St	mu_angmin	mu_angmax
mpc.branch = [
	1	2	0.02	0.06	0.03	130	130	130	0	0	1	-360	360	21.0433	-2.3360	-20.9514	-0.2726	0.0000	0.0000	0.0000	0.0000;
	1	3	0.05	0.19	0.02	130	130	130	0	0	1	-360	360	20.4991	-3.0998	-20.2790	2.0166	0.0000	0.0000	0.0000	0.0000;
	2	4	0.06	0.17	0.02	65	65	65	0	0	1	-360	360	18.6328	-5.8507	-18.4004	4.5981	0.0000	0.0000	0.0000	0.0000;
	3	4	0.01	0.04	0	130	130	130	0	0	1	-360	360	17.8790	-3.2166	-17.8444	3.3550	0.0000	0.0000	0.0000	0.0000;
	2	5	0.05	0.2	0.02	130	130	130	0	0	1	-360	360	14.3617	-0.6868	-14.2540	-0.7836	0.0000	0.0000	0.0000	0.0000;
	2	6	0.06	0.18	0.02	65	65	65	0	0	1	-360	360	21.6591	-4.2140	-21.3587	3.2122	0.0000	0.0000	0.0000	0.0000;
	4	6	0.01	0.04	0	90	90	90	0	0	1	-360	360	17.5810	5.6825	-17.5452	-5.5393	0.0000	0.0000	0.0000	0.0000;
	5	7	0.05	0.12	0.01	70	70	70	0	0	1	-360	360	14.2540	0.9629	-14.1452	-1.6365	0.0000	0.0000	0.0000	0.0000;
	6	7	0.03	0.08	0.01	130	130	130	0	0	1	-360	360	8.7041	8.4594	-8.6548	-9.2635	0.0000	0.0000	0.0000	0.0000;
	6	8	0.01	0.04	0	32	32	32	0	0	1	-360	360	23.8220	21.3661	-23.7137	-20.9329	2.3859	0.0000	0.0000	0.0000;
	6	9	0	0.21	0	65	65	65	0	0	1	-360	360	7.2703	-8.2729	-7.2703	8.5423	0.0000	0.0000	0.0000	0.0000;
	6	10	0	0.56	0	32	32	32	0	0	1	-360	360	4.1545	-4.7274	-4.1545	4.9620	0.0000	0.0000	0.0000	0.0000;
	9	11	0	0.21	0	65	65	65	0	0	1	-360	360	0.0000	0.0000	0.0000	0.0000	0.0000	0.0000	0.0000	0.0000;
	9	10	0	0.11	0	65	65	65	0	0	1	-360	360	7.2703	-8.5423	-7.2703	8.6834	0.0000	0.0000	0.0000	0.0000;
	4	12	0	0.26	0	65	65	65	0	0	1	-360	360	11.0638	-15.2356	-11.0638	16.2024	0.0000	0.0000	0.0000	0.0000;
	12	13	0	0.14	0	65	65	65	0	0	1	-360	360	-16.2001	-34.0033	16.2001	35.9220	0.0000	0.0000	0.0000	0.0000;
	12	14	0.12	0.26	0	32	32	32	0	0	1	-360	360	4.6842	2.0787	-4.6537	-2.0127	0.0000	0.0000	0.0000	0.0000;
	12	15	0.07	0.13	0	32	32	32	0	0	1	-360	360	6.0706	3.1799	-6.0389	-3.1209	0.0000	0.0000	0.0000	0.0000;
	12	16	0.09	0.2	0	32	32	32	0	0	1	-360	360	5.3092	5.0424	-5.2625	-4.9388	0.0000	0.0000	0.0000	0.0000;
	14	15	0.22	0.2	0	16	16	16	0	0	1	-360	360	-1.5463	0.4127	1.5518	-0.4076	0.0000	0.0000	0.0000	0.0000;
	16	17	0.08	0.19	0	16	16	16	0	0	1	-360	360	1.7625	3.1388	-1.7522	-3.1143	0.0000	0.0000	0.0000	0.0000;
	15	18	0.11	0.22	0	16	16	16	0	0	1	-360	360	7.2038	3.7461	-7.1326	-3.6037	0.0000	0.0000	0.0000	0.0000;
	18	19	0.06	0.13	0	16	16	16	0	0	1	-360	360	3.9326	2.7037	-3.9187	-2.6737	0.0000	0.0000	0.0000	0.0000;
	19	20	0.03	0.07	0	32	32	32	0	0	1	-360	360	-5.5813	-0.7263	5.5910	0.7491	0.0000	0.0000	0.0000	0.0000;
	10	20	0.09	0.21	0	32	32	32	0	0	1	-360	360	7.8487	1.5837	-7.7910	-1.4491	0.0000	0.0000	0.0000	0.0000;
	10	17	0.03	0.08	0	32	32	32	0	0	1	-360	360	7.2659	2.7339	-7.2478	-2.6857	0.0000	0.0000	0.0000	0.0000;
	10	21	0.03	0.07	0	32	32	32	0	0	1	-360	360	-4.4286	-11.5677	4.4746	11.6751	0.0000	0.0000	0.0000	0.0000;
	10	22	0.07	0.15	0	32	32	32	0	0	1	-360	360	-5.0612	-8.3954	5.1285	8.5396	0.0000	0.0000	0.0000	0.0000;
	21	22	0.01	0.02	0	32	32	32	0	0	1	-360	360	-21.9746	-22.8751	22.0734	23.0727	0.0000	0.0000	0.0000	0.0000;
	15	23	0.1	0.2	0	16	16	16	0	0	1	-360	360	-10.9168	-2.7175	11.0411	2.9661	0.0000	0.0000	0.0000	0.0000;
	22	24	0.12	0.18	0	16	16	16	0	0	1	-360	360	-4.4613	2.5911	4.4923	-2.5447	0.0000	0.0000	0.0000	0.0000;
	23	24	0.13	0.27	0	16	16	16	0	0	1	-360	360	2.0255	2.3925	-2.0134	-2.3673	0.0000	0.0000	0.0000	0.0000;
	24	25	0.19	0.33	0	16	16	16	0	0	1	-360	360	-11.1789	-1.7467	11.4142	2.1554	0.0000	0.0000	0.0000	0.0000;
	25	26	0.25	0.38	0	16	16	16	0	0	1	-360	360	3.5416	2.3632	-3.5000	-2.3000	0.0000	0.0000	0.0000	0.0000;
	25	27	0.11	0.21	0	16	16	16	0	0	1	-360	360	-14.9558	-4.5186	15.2023	4.9891	0.0000	0.0238	0.0000	0.0000;
	28	27	0	0.4	0	65	65	65	0	0	1	-360	360	-11.4492	-21.0925	11.4492	23.4815	0.0000	0.0000	0.0000	0.0000;
	27	29	0.22	0.42	0	16	16	16	0	0	1	-360	360	6.1568	1.6509	-6.0786	-1.5015	0.0000	0.0000	0.0000	0.0000;
	27	30	0.32	0.6	0	16	16	16	0	0	1	-360	360	7.1003	1.6339	-6.9517	-1.3552	0.0000	0.0000	0.0000	0.0000;
	29	30	0.24	0.45	0	16	16	16	0	0	1	-360	360	3.6786	0.6015	-3.6483	-0.5448	0.0000	0.0000	0.0000	0.0000;
	8	28	0.06	0.2	0.02	32	32	32	0	0	1	-360	360	-6.2863	-9.0671	6.3550	7.4082	0.0000	0.0000	0.0000	0.0000;
	6	28	0.02	0.06	0.01	32	32	32	0	0	1	-360	360	-5.0472	-14.4982	5.0942	13.6843	0.0000	0.0000	0.0000	0.0000;
];

%%-----  OPF Data  -----%%
%% generator cost data
%	1	startup	shutdown	n	x1	y1	...	xn	yn
%	2	startup	shutdown	n	c(n-1)	...	c0
mpc.gencost = [
	2	0	0	3	0.02	2	0;
	2	0	0	3	0.0175	1.75	0;
	2	0	0	3	0.0625	1	0;
	2	0	0	3	0.00834	3.25	0;
	2	0	0	3	0.025	3	0;
	2	0	0	3	0.025	3	0;
];
